** PrintTrek corner plate - out-of-plane prying bound (aluminum 6082-T6)
** 200x200x10 plate, clamped strip x<=50 (over the tube face),
** 2500 N transverse at the free edge -> M = 2500 N x 0.150 m = 375 Nm
** Hand calc: W = 200*10^2/6 = 3333 mm3 -> ~113 MPa vs yield 260 -> SF ~2.3
** Conservative: one plate takes the whole couple; really the top+bottom
** sandwich pair shares it.
** Units: mm, N, MPa
*NODE, NSET=NALL
1, 0.000, 0.000, 0.000
2, 10.000, 0.000, 0.000
3, 20.000, 0.000, 0.000
4, 30.000, 0.000, 0.000
5, 40.000, 0.000, 0.000
6, 50.000, 0.000, 0.000
7, 60.000, 0.000, 0.000
8, 70.000, 0.000, 0.000
9, 80.000, 0.000, 0.000
10, 90.000, 0.000, 0.000
11, 100.000, 0.000, 0.000
12, 110.000, 0.000, 0.000
13, 120.000, 0.000, 0.000
14, 130.000, 0.000, 0.000
15, 140.000, 0.000, 0.000
16, 150.000, 0.000, 0.000
17, 160.000, 0.000, 0.000
18, 170.000, 0.000, 0.000
19, 180.000, 0.000, 0.000
20, 190.000, 0.000, 0.000
** ... 1303 like lines cut
*ELEMENT, TYPE=C3D8I, ELSET=EALL
1, 1, 2, 23, 22, 442, 443, 464, 463
2, 2, 3, 24, 23, 443, 444, 465, 464
3, 3, 4, 25, 24, 444, 445, 466, 465
4, 4, 5, 26, 25, 445, 446, 467, 466
5, 5, 6, 27, 26, 446, 447, 468, 467
6, 6, 7, 28, 27, 447, 448, 469, 468
7, 7, 8, 29, 28, 448, 449, 470, 469
8, 8, 9, 30, 29, 449, 450, 471, 470
9, 9, 10, 31, 30, 450, 451, 472, 471
10, 10, 11, 32, 31, 451, 452, 473, 472
11, 11, 12, 33, 32, 452, 453, 474, 473
12, 12, 13, 34, 33, 453, 454, 475, 474
13, 13, 14, 35, 34, 454, 455, 476, 475
14, 14, 15, 36, 35, 455, 456, 477, 476
15, 15, 16, 37, 36, 456, 457, 478, 477
16, 16, 17, 38, 37, 457, 458, 479, 478
17, 17, 18, 39, 38, 458, 459, 480, 479
18, 18, 19, 40, 39, 459, 460, 481, 480
19, 19, 20, 41, 40, 460, 461, 482, 481
20, 20, 21, 42, 41, 461, 462, 483, 482
** ... 780 like lines cut
*NSET, NSET=CLAMP
1, 2, 3, 4, 5, 6, 22, 23, 24, 25, 26, 27,
43, 44, 45, 46, 47, 48, 64, 65, 66, 67, 68, 69,
85, 86, 87, 88, 89, 90, 106, 107, 108, 109, 110, 111,
127, 128, 129, 130, 131, 132, 148, 149, 150, 151, 152, 153,
169, 170, 171, 172, 173, 174, 190, 191, 192, 193, 194, 195,
211, 212, 213, 214, 215, 216, 232, 233, 234, 235, 236, 237,
253, 254, 255, 256, 257, 258, 274, 275, 276, 277, 278, 279,
295, 296, 297, 298, 299, 300, 316, 317, 318, 319, 320, 321,
337, 338, 339, 340, 341, 342, 358, 359, 360, 361, 362, 363,
379, 380, 381, 382, 383, 384, 400, 401, 402, 403, 404, 405,
421, 422, 423, 424, 425, 426, 442, 443, 444, 445, 446, 447,
463, 464, 465, 466, 467, 468, 484, 485, 486, 487, 488, 489,
505, 506, 507, 508, 509, 510, 526, 527, 528, 529, 530, 531,
547, 548, 549, 550, 551, 552, 568, 569, 570, 571, 572, 573,
589, 590, 591, 592, 593, 594, 610, 611, 612, 613, 614, 615,
631, 632, 633, 634, 635, 636, 652, 653, 654, 655, 656, 657,
673, 674, 675, 676, 677, 678, 694, 695, 696, 697, 698, 699,
715, 716, 717, 718, 719, 720, 736, 737, 738, 739, 740, 741,
757, 758, 759, 760, 761, 762, 778, 779, 780, 781, 782, 783,
799, 800, 801, 802, 803, 804, 820, 821, 822, 823, 824, 825,
** ... 12 like lines cut
*NSET, NSET=LOADEDGE
21, 42, 63, 84, 105, 126, 147, 168, 189, 210, 231, 252,
273, 294, 315, 336, 357, 378, 399, 420, 441, 462, 483, 504,
525, 546, 567, 588, 609, 630, 651, 672, 693, 714, 735, 756,
777, 798, 819, 840, 861, 882, 903, 924, 945, 966, 987, 1008,
1029, 1050, 1071, 1092, 1113, 1134, 1155, 1176, 1197, 1218, 1239, 1260,
1281, 1302, 1323,
*MATERIAL, NAME=AL6082T6
*ELASTIC
70000., 0.33
*SOLID SECTION, ELSET=EALL, MATERIAL=AL6082T6
*BOUNDARY
CLAMP, 1, 3
*STEP
*STATIC
*CLOAD
21, 3, 39.6825
42, 3, 39.6825
63, 3, 39.6825
84, 3, 39.6825
105, 3, 39.6825
126, 3, 39.6825
147, 3, 39.6825
168, 3, 39.6825
189, 3, 39.6825
210, 3, 39.6825
231, 3, 39.6825
252, 3, 39.6825
273, 3, 39.6825
294, 3, 39.6825
315, 3, 39.6825
336, 3, 39.6825
357, 3, 39.6825
378, 3, 39.6825
399, 3, 39.6825
420, 3, 39.6825
** ... 43 like lines cut
*NODE FILE
U
*EL FILE
S
*NODE PRINT, NSET=LOADEDGE
U
*END STEP
