*NODE, NSET=NALL
1, 0.0, 0.0, 0.0
2, 100.0, 0.0, 0.0
3, 200.0, 0.0, 0.0
4, 300.0, 0.0, 0.0
5, 400.0, 0.0, 0.0
6, 500.0, 0.0, 0.0
7, 600.0, 0.0, 0.0
8, 700.0, 0.0, 0.0
9, 800.0, 0.0, 0.0
10, 900.0, 0.0, 0.0
11, 1000.0, 0.0, 0.0
12, 1100.0, 0.0, 0.0
13, 1200.0, 0.0, 0.0
14, 1300.0, 0.0, 0.0
15, 1400.0, 0.0, 0.0
16, 1500.0, 0.0, 0.0
17, 1600.0, 0.0, 0.0
18, 1700.0, 0.0, 0.0
19, 1800.0, 0.0, 0.0
20, 1900.0, 0.0, 0.0
** ... 112 like lines cut
*ELEMENT, TYPE=B32R, ELSET=RAILS
1, 1, 2, 3
2, 3, 4, 5
3, 5, 6, 7
4, 7, 8, 9
5, 9, 10, 11
6, 11, 12, 13
7, 13, 14, 15
8, 15, 16, 17
9, 17, 18, 19
10, 19, 20, 21
11, 22, 23, 24
12, 24, 25, 26
13, 26, 27, 28
14, 28, 29, 30
15, 30, 31, 32
16, 32, 33, 34
17, 34, 35, 36
18, 36, 37, 38
19, 38, 39, 40
20, 40, 41, 42
*ELEMENT, TYPE=B32R, ELSET=CROSS
21, 1, 43, 44
22, 44, 45, 46
23, 46, 47, 48
24, 48, 49, 50
25, 50, 51, 52
26, 52, 53, 22
27, 11, 54, 55
28, 55, 56, 57
29, 57, 58, 59
30, 59, 60, 61
31, 61, 62, 63
32, 63, 64, 32
33, 21, 65, 66
34, 66, 67, 68
35, 68, 69, 70
36, 70, 71, 72
37, 72, 73, 74
38, 74, 75, 42
39, 6, 76, 77
40, 77, 78, 79
** ... 10 like lines cut
*ELEMENT, TYPE=B32R, ELSET=DRAWBAR
51, 98, 99, 100
52, 100, 101, 102
53, 102, 103, 104
54, 104, 105, 106
55, 106, 107, 108
56, 108, 109, 110
57, 110, 111, 112
58, 112, 113, 114
59, 114, 115, 116
60, 116, 117, 118
61, 118, 119, 120
62, 120, 121, 122
63, 122, 123, 124
64, 124, 125, 126
65, 126, 127, 128
66, 128, 129, 130
*ELEMENT, TYPE=B32R, ELSET=ANGLES
67, 48, 131, 118
*ELEMENT, TYPE=B32R, ELSET=LAPLINK
68, 59, 132, 128
*MATERIAL, NAME=S355
*ELASTIC
210000., 0.3
*BEAM SECTION, ELSET=RAILS, MATERIAL=S355, SECTION=BOX
50., 50., 3., 3., 3., 3.
0., 0., 1.
*BEAM SECTION, ELSET=CROSS, MATERIAL=S355, SECTION=BOX
50., 50., 3., 3., 3., 3.
0., 0., 1.
*BEAM SECTION, ELSET=DRAWBAR, MATERIAL=S355, SECTION=BOX
50., 100., 4., 4., 4., 4.
0., 1., 0.
*BEAM SECTION, ELSET=ANGLES, MATERIAL=S355, SECTION=RECT
120., 16.
1., 0., 0.
*BEAM SECTION, ELSET=LAPLINK, MATERIAL=S355, SECTION=RECT
30., 30.
1., 0., 0.
** LC: 3g vertical, 400 kg deck payload spread over both rails.
** Total 11772 N down; supports: coupling + axle brackets.
** Hand-calc envelope for comparison: isolated rail UDL gives ~64 MPa;
** the continuous frame should come in lower.
*BOUNDARY
98, 1, 3
12, 3, 3
33, 3, 3
12, 2, 2
*STEP
*STATIC
*CLOAD
1, 3, -280.286
2, 3, -280.286
3, 3, -280.286
4, 3, -280.286
5, 3, -280.286
6, 3, -280.286
7, 3, -280.286
8, 3, -280.286
9, 3, -280.286
10, 3, -280.286
11, 3, -280.286
12, 3, -280.286
13, 3, -280.286
14, 3, -280.286
15, 3, -280.286
16, 3, -280.286
17, 3, -280.286
18, 3, -280.286
19, 3, -280.286
20, 3, -280.286
** ... 22 like lines cut
*NODE FILE
U
*EL FILE
S
*EL PRINT, ELSET=RAILS
S
*EL PRINT, ELSET=CROSS
S
*EL PRINT, ELSET=DRAWBAR
S
*EL PRINT, ELSET=ANGLES
S
*EL PRINT, ELSET=LAPLINK
S
*NODE PRINT, NSET=NALL, TOTALS=ONLY
RF
*END STEP
